<?xml version="1.0" encoding="utf-8"?>
<!DOCTYPE population SYSTEM "http://www.matsim.org/files/dtd/population_v6.dtd">

<population>



<!-- ====================================================================== -->

	<person id="drt_person_0">
		<plan selected="yes">
			<activity type="dummy" x="328001.904952031" y="5579402.024200749" end_time="14:45:54" >
			</activity>
			<leg mode="drt">
			</leg>
			<activity type="dummy" x="334181.71780822286" y="5573696.303521542" >
			</activity>
		</plan>

	</person>

<!-- ====================================================================== -->

	<person id="drt_person_1">
		<plan selected="yes">
			<activity type="dummy" x="327839.16614049725" y="5580029.329236911" end_time="14:35:43" >
			</activity>
			<leg mode="drt">
			</leg>
			<activity type="dummy" x="330272.7713980718" y="5576746.842697879" >
			</activity>
		</plan>

	</person>

<!-- ====================================================================== -->

	<person id="drt_person_10">
		<plan selected="yes">
			<activity type="dummy" x="344392.2001745417" y="5562892.741172426" end_time="14:39:57" >
			</activity>
			<leg mode="drt">
			</leg>
			<activity type="dummy" x="346962.8958719993" y="5559296.791810719" >
			</activity>
		</plan>

	</person>

<!-- ====================================================================== -->

	<person id="drt_person_100">
		<plan selected="yes">
			<activity type="dummy" x="339813.10762378725" y="5569078.8303823685" end_time="07:00:00" >
			</activity>
			<leg mode="drt">
			</leg>
			<activity type="dummy" x="333934.47415727365" y="5573534.749631329" >
			</activity>
		</plan>

	</person>

<!-- ====================================================================== -->

	<person id="drt_person_1000">
		<plan selected="yes">
			<activity type="dummy" x="332726.86796954763" y="5565709.726422939" end_time="12:38:52" >
			</activity>
			<leg mode="drt">
			</leg>
			<activity type="dummy" x="354514.09794248344" y="5555005.357825401" >
			</activity>
		</plan>

	</person>

<!-- ====================================================================== -->

	<person id="drt_person_10000">
		<plan selected="yes">
			<activity type="dummy" x="328772.0626234715" y="5578749.203850663" end_time="07:14:21" >
			</activity>
			<leg mode="drt">
			</leg>
			<activity type="dummy" x="329967.6125222811" y="5576274.7551419" >
			</activity>
		</plan>

	</person>

<!-- ====================================================================== -->

	<person id="drt_person_10001">
		<plan selected="yes">
			<activity type="dummy" x="328560.6888855556" y="5576510.402933993" end_time="05:01:06" >
			</activity>
			<leg mode="drt">
			</leg>
			<activity type="dummy" x="333467.89052939555" y="5568189.123543035" >
			</activity>
		</plan>

	</person>

<!-- ====================================================================== -->

	<person id="drt_person_10002">
		<plan selected="yes">
			<activity type="dummy" x="333467.89052939555" y="5568189.123543035" end_time="08:52:00" >
			</activity>
			<leg mode="drt">
			</leg>
			<activity type="dummy" x="345035.8033179373" y="5560737.8763447385" >
			</activity>
		</plan>

	</person>

<!-- ====================================================================== -->

	<person id="drt_person_10003">
		<plan selected="yes">
			<activity type="dummy" x="345035.8033179373" y="5560737.8763447385" end_time="12:00:55" >
			</activity>
			<leg mode="drt">
			</leg>
			<activity type="dummy" x="328560.6888855556" y="5576510.402933993" >
			</activity>
		</plan>

	</person>

<!-- ====================================================================== -->

	<person id="drt_person_10004">
		<plan selected="yes">
			<activity type="dummy" x="328943.1729564545" y="5576262.106342293" end_time="04:43:22" >
			</activity>
			<leg mode="drt">
			</leg>
			<activity type="dummy" x="333168.4242780128" y="5568083.904587271" >
			</activity>
		</plan>

	</person>

<!-- ====================================================================== -->

	<person id="drt_person_10005">
		<plan selected="yes">
			<activity type="dummy" x="333168.4242780128" y="5568083.904587271" end_time="08:47:44" >
			</activity>
			<leg mode="drt">
			</leg>
			<activity type="dummy" x="328943.1729564545" y="5576262.106342293" >
			</activity>
		</plan>

	</person>

<!-- ====================================================================== -->

	<person id="drt_person_10006">
		<plan selected="yes">
			<activity type="dummy" x="328943.1729564545" y="5576262.106342293" end_time="17:53:13" >
			</activity>
			<leg mode="drt">
			</leg>
			<activity type="dummy" x="327264.7368194269" y="5579968.213878833" >
			</activity>
		</plan>

	</person>

<!-- ====================================================================== -->

	<person id="drt_person_10007">
		<plan selected="yes">
			<activity type="dummy" x="327264.7368194269" y="5579968.213878833" end_time="19:42:26" >
			</activity>
			<leg mode="drt">
			</leg>
			<activity type="dummy" x="328943.1729564545" y="5576262.106342293" >
			</activity>
		</plan>

	</person>

<!-- ====================================================================== -->

	<person id="drt_person_10008">
		<plan selected="yes">
			<activity type="dummy" x="329311.69639148493" y="5576508.408417002" end_time="08:00:04" >
			</activity>
			<leg mode="drt">
			</leg>
			<activity type="dummy" x="333211.6465100492" y="5565937.091461001" >
			</activity>
		</plan>

	</person>

<!-- ====================================================================== -->

	<person id="drt_person_10009">
		<plan selected="yes">
			<activity type="dummy" x="333211.6465100492" y="5565937.091461001" end_time="13:18:41" >
			</activity>
			<leg mode="drt">
			</leg>
			<activity type="dummy" x="329311.69639148493" y="5576508.408417002" >
			</activity>
		</plan>

	</person>

<!-- ====================================================================== -->

	<person id="drt_person_1001">
		<plan selected="yes">
			<activity type="dummy" x="354502.16094514" y="5555013.471478845" end_time="06:30:00" >
			</activity>
			<leg mode="drt">
			</leg>
			<activity type="dummy" x="344391.73838450515" y="5562842.191677" >
			</activity>
		</plan>

	</person>

<!-- ====================================================================== -->

	<person id="drt_person_10010">
		<plan selected="yes">
			<activity type="dummy" x="330773.8885185156" y="5574945.775400698" end_time="04:44:16" >
			</activity>
			<leg mode="drt">
			</leg>
			<activity type="dummy" x="329698.505995716" y="5578077.427145582" >
			</activity>
		</plan>

	</person>

<!-- ====================================================================== -->

	<person id="drt_person_10011">
		<plan selected="yes">
			<activity type="dummy" x="329698.505995716" y="5578077.427145582" end_time="13:34:41" >
			</activity>
			<leg mode="drt">
			</leg>
			<activity type="dummy" x="330773.8885185156" y="5574945.775400698" >
			</activity>
		</plan>

	</person>

<!-- ====================================================================== -->

	<person id="drt_person_10012">
		<plan selected="yes">
			<activity type="dummy" x="329478.7148392077" y="5576406.208828343" end_time="03:43:41" >
			</activity>
			<leg mode="drt">
			</leg>
			<activity type="dummy" x="329713.25607630174" y="5578093.509406745" >
			</activity>
		</plan>

	</person>

<!-- ====================================================================== -->

	<person id="drt_person_10013">
		<plan selected="yes">
			<activity type="dummy" x="329713.25607630174" y="5578093.509406745" end_time="13:01:24" >
			</activity>
			<leg mode="drt">
			</leg>
			<activity type="dummy" x="329478.7148392077" y="5576406.208828343" >
			</activity>
		</plan>

	</person>

<!-- ====================================================================== -->

	<person id="drt_person_10014">
		<plan selected="yes">
			<activity type="dummy" x="329873.7827144662" y="5576592.711235899" end_time="06:36:29" >
			</activity>
			<leg mode="drt">
			</leg>
			<activity type="dummy" x="333357.1387753474" y="5565977.949909785" >
			</activity>
		</plan>

	</person>

<!-- ====================================================================== -->

	<person id="drt_person_10015">
		<plan selected="yes">
			<activity type="dummy" x="333357.1387753474" y="5565977.949909785" end_time="07:44:14" >
			</activity>
			<leg mode="drt">
			</leg>
			<activity type="dummy" x="329873.7827144662" y="5576592.711235899" >
			</activity>
		</plan>

	</person>

<!-- ====================================================================== -->

	<person id="drt_person_10016">
		<plan selected="yes">
			<activity type="dummy" x="329542.77882592694" y="5576381.889448576" end_time="08:05:05" >
			</activity>
			<leg mode="drt">
			</leg>
			<activity type="dummy" x="328001.89417267684" y="5579402.065035086" >
			</activity>
		</plan>

	</person>

<!-- ====================================================================== -->

	<person id="drt_person_10017">
		<plan selected="yes">
			<activity type="dummy" x="328001.89417267684" y="5579402.065035086" end_time="14:17:13" >
			</activity>
			<leg mode="drt">
			</leg>
			<activity type="dummy" x="325348.4872973206" y="5580556.285764366" >
			</activity>
		</plan>

	</person>

<!-- ====================================================================== -->

	<person id="drt_person_10018">
		<plan selected="yes">
			<activity type="dummy" x="325348.4872973206" y="5580556.285764366" end_time="15:14:08" >
			</activity>
			<leg mode="drt">
			</leg>
			<activity type="dummy" x="329713.25607630174" y="5578093.509406745" >
			</activity>
		</plan>

	</person>

<!-- ====================================================================== -->

	<person id="drt_person_10019">
		<plan selected="yes">
			<activity type="dummy" x="329713.25607630174" y="5578093.509406745" end_time="18:25:35" >
			</activity>
			<leg mode="drt">
			</leg>
			<activity type="dummy" x="339416.65723366383" y="5579274.766381485" >
			</activity>
		</plan>

	</person>

<!-- ====================================================================== -->

	<person id="drt_person_1002">
		<plan selected="yes">
			<activity type="dummy" x="344391.73838450515" y="5562842.191677" end_time="13:21:29" >
			</activity>
			<leg mode="drt">
			</leg>
			<activity type="dummy" x="354502.16094514" y="5555013.471478845" >
			</activity>
		</plan>

	</person>

<!-- ====================================================================== -->

	<person id="drt_person_10020">
		<plan selected="yes">
			<activity type="dummy" x="339416.65723366383" y="5579274.766381485" end_time="20:52:43" >
			</activity>
			<leg mode="drt">
			</leg>
			<activity type="dummy" x="329542.77882592694" y="5576381.889448576" >
			</activity>
		</plan>

	</person>

<!-- ====================================================================== -->

	<person id="drt_person_10021">
		<plan selected="yes">
			<activity type="dummy" x="329176.19924321224" y="5576372.552864464" end_time="07:18:19" >
			</activity>
			<leg mode="drt">
			</leg>
			<activity type="dummy" x="324595.9203226961" y="5580624.488044406" >
			</activity>
		</plan>

	</person>

<!-- ====================================================================== -->

	<person id="drt_person_10022">
		<plan selected="yes">
			<activity type="dummy" x="324595.9203226961" y="5580624.488044406" end_time="09:13:08" >
			</activity>
			<leg mode="drt">
			</leg>
			<activity type="dummy" x="329176.19924321224" y="5576372.552864464" >
			</activity>
		</plan>

	</person>

<!-- ====================================================================== -->

	<person id="drt_person_10023">
		<plan selected="yes">
			<activity type="dummy" x="329176.19924321224" y="5576372.552864464" end_time="12:53:17" >
			</activity>
			<leg mode="drt">
			</leg>
			<activity type="dummy" x="330174.4628047488" y="5580233.181150997" >
			</activity>
		</plan>

	</person>

<!-- ====================================================================== -->

	<person id="drt_person_10024">
		<plan selected="yes">
			<activity type="dummy" x="330174.4628047488" y="5580233.181150997" end_time="14:00:13" >
			</activity>
			<leg mode="drt">
			</leg>
			<activity type="dummy" x="329176.19924321224" y="5576372.552864464" >
			</activity>
		</plan>

	</person>

<!-- ====================================================================== -->

	<person id="drt_person_10025">
		<plan selected="yes">
			<activity type="dummy" x="330171.90036872064" y="5576600.950982542" end_time="07:22:21" >
			</activity>
			<leg mode="drt">
			</leg>
			<activity type="dummy" x="333481.6973677096" y="5568106.336444783" >
			</activity>
		</plan>

	</person>

<!-- ====================================================================== -->

	<person id="drt_person_10026">
		<plan selected="yes">
			<activity type="dummy" x="333481.6973677096" y="5568106.336444783" end_time="10:09:01" >
			</activity>
			<leg mode="drt">
			</leg>
			<activity type="dummy" x="330171.90036872064" y="5576600.950982542" >
			</activity>
		</plan>

	</person>

<!-- ====================================================================== -->

	<person id="drt_person_10027">
		<plan selected="yes">
			<activity type="dummy" x="329932.99488348956" y="5576838.98102855" end_time="10:28:51" >
			</activity>
			<leg mode="drt">
			</leg>
			<activity type="dummy" x="324243.5515325754" y="5580434.943031788" >
			</activity>
		</plan>

	</person>

<!-- ====================================================================== -->

	<person id="drt_person_10028">
		<plan selected="yes">
			<activity type="dummy" x="324243.5515325754" y="5580434.943031788" end_time="12:06:38" >
			</activity>
			<leg mode="drt">
			</leg>
			<activity type="dummy" x="329932.99488348956" y="5576838.98102855" >
			</activity>
		</plan>

	</person>

<!-- ====================================================================== -->

	<person id="drt_person_10029">
		<plan selected="yes">
			<activity type="dummy" x="328070.5457174176" y="5576448.385819242" end_time="16:50:31" >
			</activity>
			<leg mode="drt">
			</leg>
			<activity type="dummy" x="324243.5515325754" y="5580434.943031788" >
			</activity>
		</plan>

	</person>

<!-- ====================================================================== -->

	<person id="drt_person_1003">
		<plan selected="yes">
			<activity type="dummy" x="327154.0382766295" y="5580046.2011703765" end_time="05:45:00" >
			</activity>
			<leg mode="drt">
			</leg>
			<activity type="dummy" x="334075.65474555717" y="5573362.522436529" >
			</activity>
		</plan>

	</person>

<!-- ====================================================================== -->

	<person id="drt_person_10030">
		<plan selected="yes">
			<activity type="dummy" x="324243.5515325754" y="5580434.943031788" end_time="18:03:44" >
			</activity>
			<leg mode="drt">
			</leg>
			<activity type="dummy" x="328070.5457174176" y="5576448.385819242" >
			</activity>
		</plan>

	</person>

<!-- ====================================================================== -->

	<person id="drt_person_10031">
		<plan selected="yes">
			<activity type="dummy" x="330228.27542453154" y="5576536.823051272" end_time="09:15:40" >
			</activity>
			<leg mode="drt">
			</leg>
			<activity type="dummy" x="328611.0145958647" y="5578262.80376297" >
			</activity>
		</plan>

	</person>

<!-- ====================================================================== -->

	<person id="drt_person_10032">
		<plan selected="yes">
			<activity type="dummy" x="328611.0145958647" y="5578262.80376297" end_time="13:44:29" >
			</activity>
			<leg mode="drt">
			</leg>
			<activity type="dummy" x="330228.27542453154" y="5576536.823051272" >
			</activity>
		</plan>

	</person>

<!-- ====================================================================== -->

	<person id="drt_person_10033">
		<plan selected="yes">
			<activity type="dummy" x="329786.2216822267" y="5576551.009084667" end_time="09:37:53" >
			</activity>
			<leg mode="drt">
			</leg>
			<activity type="dummy" x="327498.5288536032" y="5578838.5253298255" >
			</activity>
		</plan>

	</person>

<!-- ====================================================================== -->

	<person id="drt_person_10034">
		<plan selected="yes">
			<activity type="dummy" x="327498.5288536032" y="5578838.5253298255" end_time="10:58:22" >
			</activity>
			<leg mode="drt">
			</leg>
			<activity type="dummy" x="329786.2216822267" y="5576551.009084667" >
			</activity>
		</plan>

	</person>

<!-- ====================================================================== -->

	<person id="drt_person_10035">
		<plan selected="yes">
			<activity type="dummy" x="329413.1037932234" y="5576338.209758079" end_time="08:05:11" >
			</activity>
			<leg mode="drt">
			</leg>
			<activity type="dummy" x="327038.6729094931" y="5580176.832043161" >
			</activity>
		</plan>

	</person>

<!-- ====================================================================== -->

	<person id="drt_person_10036">
		<plan selected="yes">
			<activity type="dummy" x="327038.6729094931" y="5580176.832043161" end_time="09:15:05" >
			</activity>
			<leg mode="drt">
			</leg>
			<activity type="dummy" x="329413.1037932234" y="5576338.209758079" >
			</activity>
		</plan>

	</person>

<!-- ====================================================================== -->

	<person id="drt_person_10037">
		<plan selected="yes">
			<activity type="dummy" x="330333.4477221224" y="5576349.829818438" end_time="10:17:22" >
			</activity>
			<leg mode="drt">
			</leg>
			<activity type="dummy" x="328029.223688664" y="5579563.775238398" >
			</activity>
		</plan>

	</person>

<!-- ====================================================================== -->

	<person id="drt_person_10038">
		<plan selected="yes">
			<activity type="dummy" x="328029.223688664" y="5579563.775238398" end_time="13:42:27" >
			</activity>
			<leg mode="drt">
			</leg>
			<activity type="dummy" x="330333.4477221224" y="5576349.829818438" >
			</activity>
		</plan>

	</person>

<!-- ====================================================================== -->

	<person id="drt_person_10039">
		<plan selected="yes">
			<activity type="dummy" x="329596.74601336056" y="5576663.937259608" end_time="08:17:11" >
			</activity>
			<leg mode="drt">
			</leg>
			<activity type="dummy" x="330805.09739997715" y="5573131.909925008" >
			</activity>
		</plan>

	</person>

<!-- ====================================================================== -->

	<person id="drt_person_1004">
		<plan selected="yes">
			<activity type="dummy" x="334075.65474555717" y="5573362.522436529" end_time="12:59:00" >
			</activity>
			<leg mode="drt">
			</leg>
			<activity type="dummy" x="327154.0382766295" y="5580046.2011703765" >
			</activity>
		</plan>

	</person>

<!-- ====================================================================== -->

	<person id="drt_person_10040">
		<plan selected="yes">
			<activity type="dummy" x="330805.09739997715" y="5573131.909925008" end_time="11:53:56" >
			</activity>
			<leg mode="drt">
			</leg>
			<activity type="dummy" x="329596.74601336056" y="5576663.937259608" >
			</activity>
		</plan>

	</person>

<!-- ====================================================================== -->

	<person id="drt_person_10041">
		<plan selected="yes">
			<activity type="dummy" x="329646.7333191778" y="5576534.348415733" end_time="07:30:26" >
			</activity>
			<leg mode="drt">
			</leg>
			<activity type="dummy" x="327564.9201540785" y="5579849.316071112" >
			</activity>
		</plan>

	</person>

<!-- ====================================================================== -->

	<person id="drt_person_10042">
		<plan selected="yes">
			<activity type="dummy" x="327564.9201540785" y="5579849.316071112" end_time="15:26:23" >
			</activity>
			<leg mode="drt">
			</leg>
			<activity type="dummy" x="329646.7333191778" y="5576534.348415733" >
			</activity>
		</plan>

	</person>

<!-- ====================================================================== -->

	<person id="drt_person_10043">
		<plan selected="yes">
			<activity type="dummy" x="324125.9376463543" y="5580731.396545559" end_time="05:14:50" >
			</activity>
			<leg mode="drt">
			</leg>
			<activity type="dummy" x="327253.2449329607" y="5580053.072997884" >
			</activity>
		</plan>

	</person>

<!-- ====================================================================== -->

	<person id="drt_person_10044">
		<plan selected="yes">
			<activity type="dummy" x="327253.2449329607" y="5580053.072997884" end_time="15:00:04" >
			</activity>
			<leg mode="drt">
			</leg>
			<activity type="dummy" x="324125.9376463543" y="5580731.396545559" >
			</activity>
		</plan>

	</person>

<!-- ====================================================================== -->

	<person id="drt_person_10045">
		<plan selected="yes">
			<activity type="dummy" x="324353.9346222216" y="5580392.16325532" end_time="17:37:57" >
			</activity>
			<leg mode="drt">
			</leg>
			<activity type="dummy" x="327786.0910779537" y="5579774.187136937" >
			</activity>
		</plan>

	</person>

<!-- ====================================================================== -->

	<person id="drt_person_10046">
		<plan selected="yes">
			<activity type="dummy" x="327786.0910779537" y="5579774.187136937" end_time="21:43:28" >
			</activity>
			<leg mode="drt">
			</leg>
			<activity type="dummy" x="324353.9346222216" y="5580392.16325532" >
			</activity>
		</plan>

	</person>

<!-- ====================================================================== -->

	<person id="drt_person_10047">
		<plan selected="yes">
			<activity type="dummy" x="324066.10283315566" y="5580580.9117990155" end_time="10:24:22" >
			</activity>
			<leg mode="drt">
			</leg>
			<activity type="dummy" x="326974.72822523315" y="5580268.076952869" >
			</activity>
		</plan>

	</person>

<!-- ====================================================================== -->

	<person id="drt_person_10048">
		<plan selected="yes">
			<activity type="dummy" x="326974.72822523315" y="5580268.076952869" end_time="12:09:35" >
			</activity>
			<leg mode="drt">
			</leg>
			<activity type="dummy" x="324066.10283315566" y="5580580.9117990155" >
			</activity>
		</plan>

	</person>

<!-- ====================================================================== -->

	<person id="drt_person_10049">
		<plan selected="yes">
			<activity type="dummy" x="324022.8736212223" y="5580737.04984873" end_time="05:20:10" >
			</activity>
			<leg mode="drt">
			</leg>
			<activity type="dummy" x="328772.0626234715" y="5578749.203850663" >
			</activity>
		</plan>

	</person>

<!-- ====================================================================== -->

	<person id="drt_person_1005">
		<plan selected="yes">
			<activity type="dummy" x="327332.4069265459" y="5579969.151226943" end_time="07:15:00" >
			</activity>
			<leg mode="drt">
			</leg>
			<activity type="dummy" x="333869.954800373" y="5573400.879731068" >
			</activity>
		</plan>

	</person>

<!-- ====================================================================== -->

	<person id="drt_person_10050">
		<plan selected="yes">
			<activity type="dummy" x="328772.0626234715" y="5578749.203850663" end_time="11:21:52" >
			</activity>
			<leg mode="drt">
			</leg>
			<activity type="dummy" x="324022.8736212223" y="5580737.04984873" >
			</activity>
		</plan>

	</person>

<!-- ====================================================================== -->

	<person id="drt_person_10051">
		<plan selected="yes">
			<activity type="dummy" x="323869.1035757701" y="5580887.964172345" end_time="07:47:21" >
			</activity>
			<leg mode="drt">
			</leg>
			<activity type="dummy" x="330386.8782727938" y="5576883.211714188" >
			</activity>
		</plan>

	</person>

<!-- ====================================================================== -->

	<person id="drt_person_10052">
		<plan selected="yes">
			<activity type="dummy" x="330386.8782727938" y="5576883.211714188" end_time="16:53:02" >
			</activity>
			<leg mode="drt">
			</leg>
			<activity type="dummy" x="323869.1035757701" y="5580887.964172345" >
			</activity>
		</plan>

	</person>

<!-- ====================================================================== -->

	<person id="drt_person_10053">
		<plan selected="yes">
			<activity type="dummy" x="323822.12657465163" y="5580375.3437588215" end_time="05:39:06" >
			</activity>
			<leg mode="drt">
			</leg>
			<activity type="dummy" x="330386.8782727938" y="5576883.211714188" >
			</activity>
		</plan>

	</person>

<!-- ====================================================================== -->

	<person id="drt_person_10054">
		<plan selected="yes">
			<activity type="dummy" x="330386.8782727938" y="5576883.211714188" end_time="16:00:18" >
			</activity>
			<leg mode="drt">
			</leg>
			<activity type="dummy" x="323822.12657465163" y="5580375.3437588215" >
			</activity>
		</plan>

	</person>

<!-- ====================================================================== -->

	<person id="drt_person_10055">
		<plan selected="yes">
			<activity type="dummy" x="324533.08655611426" y="5580447.43068002" end_time="08:05:01" >
			</activity>
			<leg mode="drt">
			</leg>
			<activity type="dummy" x="326813.88843054406" y="5580293.2928194385" >
			</activity>
		</plan>

	</person>

<!-- ====================================================================== -->

	<person id="drt_person_10056">
		<plan selected="yes">
			<activity type="dummy" x="326813.88843054406" y="5580293.2928194385" end_time="09:54:51" >
			</activity>
			<leg mode="drt">
			</leg>
			<activity type="dummy" x="324533.08655611426" y="5580447.43068002" >
			</activity>
		</plan>

	</person>

<!-- ====================================================================== -->

	<person id="drt_person_10057">
		<plan selected="yes">
			<activity type="dummy" x="324533.08655611426" y="5580447.43068002" end_time="14:18:21" >
			</activity>
			<leg mode="drt">
			</leg>
			<activity type="dummy" x="317949.17398777604" y="5578417.026358791" >
			</activity>
		</plan>

	</person>

<!-- ====================================================================== -->

	<person id="drt_person_10058">
		<plan selected="yes">
			<activity type="dummy" x="317949.17398777604" y="5578417.026358791" end_time="19:02:08" >
			</activity>
			<leg mode="drt">
			</leg>
			<activity type="dummy" x="324533.08655611426" y="5580447.43068002" >
			</activity>
		</plan>

	</person>

<!-- ====================================================================== -->

	<person id="drt_person_10059">
		<plan selected="yes">
			<activity type="dummy" x="324206.8697295029" y="5580574.006571701" end_time="14:25:00" >
			</activity>
			<leg mode="drt">
			</leg>
			<activity type="dummy" x="327786.0910779537" y="5579774.187136937" >
			</activity>
		</plan>

	</person>

<!-- ====================================================================== -->

	<person id="drt_person_1006">
		<plan selected="yes">
			<activity type="dummy" x="333869.954800373" y="5573400.879731068" end_time="15:38:03" >
			</activity>
			<leg mode="drt">
			</leg>
			<activity type="dummy" x="327332.4069265459" y="5579969.151226943" >
			</activity>
		</plan>

	</person>

<!-- ====================================================================== -->

	<person id="drt_person_10060">
		<plan selected="yes">
			<activity type="dummy" x="327786.0910779537" y="5579774.187136937" end_time="17:15:17" >
			</activity>
			<leg mode="drt">
			</leg>
			<activity type="dummy" x="324206.8697295029" y="5580574.006571701" >
			</activity>
		</plan>

	</person>

<!-- ====================================================================== -->

	<person id="drt_person_10061">
		<plan selected="yes">
			<activity type="dummy" x="324406.0277764548" y="5579901.850748425" end_time="10:53:23" >
			</activity>
			<leg mode="drt">
			</leg>
			<activity type="dummy" x="328001.89417267684" y="5579402.065035086" >
			</activity>
		</plan>

	</person>

<!-- ====================================================================== -->

	<person id="drt_person_10062">
		<plan selected="yes">
			<activity type="dummy" x="328001.89417267684" y="5579402.065035086" end_time="11:33:38" >
			</activity>
			<leg mode="drt">
			</leg>
			<activity type="dummy" x="324406.0277764548" y="5579901.850748425" >
			</activity>
		</plan>

	</person>

<!-- ====================================================================== -->

	<person id="drt_person_10063">
		<plan selected="yes">
			<activity type="dummy" x="324406.0277764548" y="5579901.850748425" end_time="17:36:33" >
			</activity>
			<leg mode="drt">
			</leg>
			<activity type="dummy" x="330174.4628047488" y="5580233.181150997" >
			</activity>
		</plan>

	</person>

<!-- ====================================================================== -->

	<person id="drt_person_10064">
		<plan selected="yes">
			<activity type="dummy" x="330174.4628047488" y="5580233.181150997" end_time="18:39:41" >
			</activity>
			<leg mode="drt">
			</leg>
			<activity type="dummy" x="324406.0277764548" y="5579901.850748425" >
			</activity>
		</plan>

	</person>

<!-- ====================================================================== -->

	<person id="drt_person_10065">
		<plan selected="yes">
			<activity type="dummy" x="323822.12657465163" y="5580375.3437588215" end_time="06:02:25" >
			</activity>
			<leg mode="drt">
			</leg>
			<activity type="dummy" x="335145.7926932011" y="5567020.771687056" >
			</activity>
		</plan>

	</person>

<!-- ====================================================================== -->

	<person id="drt_person_10066">
		<plan selected="yes">
			<activity type="dummy" x="335145.7926932011" y="5567020.771687056" end_time="16:30:31" >
			</activity>
			<leg mode="drt">
			</leg>