<?xml version="1.0" encoding="utf-8"?>
<!DOCTYPE population SYSTEM "http://www.matsim.org/files/dtd/population_v6.dtd">

<population>



<!-- ====================================================================== -->

	<person id="drt_person_0">
		<plan selected="yes">
			<activity type="dummy" link="240205470003f" end_time="09:58:54" >
			</activity>
			<leg mode="drt">
			</leg>
			<activity type="dummy" link="6890672970023f" >
			</activity>
		</plan>

	</person>

<!-- ====================================================================== -->

	<person id="drt_person_1">
		<plan selected="yes">
			<activity type="dummy" link="240205450015f" end_time="06:58:01" >
			</activity>
			<leg mode="drt">
			</leg>
			<activity type="dummy" link="1881386090007f" >
			</activity>
		</plan>

	</person>

<!-- ====================================================================== -->

	<person id="drt_person_10">
		<plan selected="yes">
			<activity type="dummy" link="770499860003f" end_time="12:56:00" >
			</activity>
			<leg mode="drt">
			</leg>
			<activity type="dummy" link="300854190005f" >
			</activity>
		</plan>

	</person>

<!-- ====================================================================== -->

	<person id="drt_person_100">
		<plan selected="yes">
			<activity type="dummy" link="316875440005f" end_time="09:40:40" >
			</activity>
			<leg mode="drt">
			</leg>
			<activity type="dummy" link="1138507140004f" >
			</activity>
		</plan>

	</person>

<!-- ====================================================================== -->

	<person id="drt_person_101">
		<plan selected="yes">
			<activity type="dummy" link="316875510008f" end_time="09:38:58" >
			</activity>
			<leg mode="drt">
			</leg>
			<activity type="dummy" link="1138507100005f" >
			</activity>
		</plan>

	</person>

<!-- ====================================================================== -->

	<person id="drt_person_102">
		<plan selected="yes">
			<activity type="dummy" link="316875420002f" end_time="17:40:35" >
			</activity>
			<leg mode="drt">
			</leg>
			<activity type="dummy" link="388593110012f" >
			</activity>
		</plan>

	</person>

<!-- ====================================================================== -->

	<person id="drt_person_103">
		<plan selected="yes">
			<activity type="dummy" link="1138507170008f" end_time="10:21:11" >
			</activity>
			<leg mode="drt">
			</leg>
			<activity type="dummy" link="316875370003f" >
			</activity>
		</plan>

	</person>

<!-- ====================================================================== -->

	<person id="drt_person_104">
		<plan selected="yes">
			<activity type="dummy" link="1292572770002f" end_time="10:25:09" >
			</activity>
			<leg mode="drt">
			</leg>
			<activity type="dummy" link="2617006240013f" >
			</activity>
		</plan>

	</person>

<!-- ====================================================================== -->

	<person id="drt_person_105">
		<plan selected="yes">
			<activity type="dummy" link="2617006240013f" end_time="17:34:17" >
			</activity>
			<leg mode="drt">
			</leg>
			<activity type="dummy" link="1292572770002f" >
			</activity>
		</plan>

	</person>

<!-- ====================================================================== -->

	<person id="drt_person_106">
		<plan selected="yes">
			<activity type="dummy" link="1292573570004f" end_time="09:44:38" >
			</activity>
			<leg mode="drt">
			</leg>
			<activity type="dummy" link="404595280011f" >
			</activity>
		</plan>

	</person>

<!-- ====================================================================== -->

	<person id="drt_person_107">
		<plan selected="yes">
			<activity type="dummy" link="2555071860037f" end_time="14:18:58" >
			</activity>
			<leg mode="drt">
			</leg>
			<activity type="dummy" link="8483896970006f" >
			</activity>
		</plan>

	</person>

<!-- ====================================================================== -->

	<person id="drt_person_108">
		<plan selected="yes">
			<activity type="dummy" link="290357030005f" end_time="08:13:09" >
			</activity>
			<leg mode="drt">
			</leg>
			<activity type="dummy" link="232881380006f" >
			</activity>
		</plan>

	</person>

<!-- ====================================================================== -->

	<person id="drt_person_109">
		<plan selected="yes">
			<activity type="dummy" link="232881380006f" end_time="10:37:25" >
			</activity>
			<leg mode="drt">
			</leg>
			<activity type="dummy" link="290357030005f" >
			</activity>
		</plan>

	</person>

<!-- ====================================================================== -->

	<person id="drt_person_11">
		<plan selected="yes">
			<activity type="dummy" link="3275397940001f" end_time="18:11:25" >
			</activity>
			<leg mode="drt">
			</leg>
			<activity type="dummy" link="233361830005f" >
			</activity>
		</plan>

	</person>

<!-- ====================================================================== -->

	<person id="drt_person_110">
		<plan selected="yes">
			<activity type="dummy" link="1979197860000f" end_time="12:31:14" >
			</activity>
			<leg mode="drt">
			</leg>
			<activity type="dummy" link="248177370008f" >
			</activity>
		</plan>

	</person>

<!-- ====================================================================== -->

	<person id="drt_person_111">
		<plan selected="yes">
			<activity type="dummy" link="248177370008f" end_time="15:14:32" >
			</activity>
			<leg mode="drt">
			</leg>
			<activity type="dummy" link="1979197860000f" >
			</activity>
		</plan>

	</person>

<!-- ====================================================================== -->

	<person id="drt_person_112">
		<plan selected="yes">
			<activity type="dummy" link="1214991220020f" end_time="06:03:23" >
			</activity>
			<leg mode="drt">
			</leg>
			<activity type="dummy" link="316975280005f" >
			</activity>
		</plan>

	</person>

<!-- ====================================================================== -->

	<person id="drt_person_113">
		<plan selected="yes">
			<activity type="dummy" link="316975280005f" end_time="11:41:35" >
			</activity>
			<leg mode="drt">
			</leg>
			<activity type="dummy" link="1214991220020f" >
			</activity>
		</plan>

	</person>

<!-- ====================================================================== -->

	<person id="drt_person_114">
		<plan selected="yes">
			<activity type="dummy" link="1214991220020f" end_time="08:01:20" >
			</activity>
			<leg mode="drt">
			</leg>
			<activity type="dummy" link="8291250350005f" >
			</activity>
		</plan>

	</person>

<!-- ====================================================================== -->

	<person id="drt_person_115">
		<plan selected="yes">
			<activity type="dummy" link="8291250350005f" end_time="15:40:15" >
			</activity>
			<leg mode="drt">
			</leg>
			<activity type="dummy" link="1214991220020f" >
			</activity>
		</plan>

	</person>

<!-- ====================================================================== -->

	<person id="drt_person_116">
		<plan selected="yes">
			<activity type="dummy" link="290357030002f" end_time="09:12:12" >
			</activity>
			<leg mode="drt">
			</leg>
			<activity type="dummy" link="88192690012f" >
			</activity>
		</plan>

	</person>

<!-- ====================================================================== -->

	<person id="drt_person_117">
		<plan selected="yes">
			<activity type="dummy" link="290356900003f" end_time="06:19:03" >
			</activity>
			<leg mode="drt">
			</leg>
			<activity type="dummy" link="300854190005f" >
			</activity>
		</plan>

	</person>

<!-- ====================================================================== -->

	<person id="drt_person_118">
		<plan selected="yes">
			<activity type="dummy" link="290356960009f" end_time="06:12:27" >
			</activity>
			<leg mode="drt">
			</leg>
			<activity type="dummy" link="2166041410001f" >
			</activity>
		</plan>

	</person>

<!-- ====================================================================== -->

	<person id="drt_person_119">
		<plan selected="yes">
			<activity type="dummy" link="2166041410001f" end_time="11:40:23" >
			</activity>
			<leg mode="drt">
			</leg>
			<activity type="dummy" link="290356960009f" >
			</activity>
		</plan>

	</person>

<!-- ====================================================================== -->

	<person id="drt_person_12">
		<plan selected="yes">
			<activity type="dummy" link="233361830005f" end_time="20:34:59" >
			</activity>
			<leg mode="drt">
			</leg>
			<activity type="dummy" link="3275397940001f" >
			</activity>
		</plan>

	</person>

<!-- ====================================================================== -->

	<person id="drt_person_120">
		<plan selected="yes">
			<activity type="dummy" link="290356870003f" end_time="05:58:27" >
			</activity>
			<leg mode="drt">
			</leg>
			<activity type="dummy" link="7947152460009f" >
			</activity>
		</plan>

	</person>

<!-- ====================================================================== -->

	<person id="drt_person_121">
		<plan selected="yes">
			<activity type="dummy" link="7947152460009f" end_time="12:36:27" >
			</activity>
			<leg mode="drt">
			</leg>
			<activity type="dummy" link="290356870003f" >
			</activity>
		</plan>

	</person>

<!-- ====================================================================== -->

	<person id="drt_person_122">
		<plan selected="yes">
			<activity type="dummy" link="290356930012f" end_time="05:25:14" >
			</activity>
			<leg mode="drt">
			</leg>
			<activity type="dummy" link="300853470005f" >
			</activity>
		</plan>

	</person>

<!-- ====================================================================== -->

	<person id="drt_person_123">
		<plan selected="yes">
			<activity type="dummy" link="300853470005f" end_time="13:10:58" >
			</activity>
			<leg mode="drt">
			</leg>
			<activity type="dummy" link="290356930012f" >
			</activity>
		</plan>

	</person>

<!-- ====================================================================== -->

	<person id="drt_person_124">
		<plan selected="yes">
			<activity type="dummy" link="1979197860000f" end_time="04:09:19" >
			</activity>
			<leg mode="drt">
			</leg>
			<activity type="dummy" link="97796830006f" >
			</activity>
		</plan>

	</person>

<!-- ====================================================================== -->

	<person id="drt_person_125">
		<plan selected="yes">
			<activity type="dummy" link="97796830006f" end_time="11:31:24" >
			</activity>
			<leg mode="drt">
			</leg>
			<activity type="dummy" link="1979197860000f" >
			</activity>
		</plan>

	</person>

<!-- ====================================================================== -->

	<person id="drt_person_126">
		<plan selected="yes">
			<activity type="dummy" link="1214991220020f" end_time="07:01:39" >
			</activity>
			<leg mode="drt">
			</leg>
			<activity type="dummy" link="304345790017f" >
			</activity>
		</plan>

	</person>

<!-- ====================================================================== -->

	<person id="drt_person_127">
		<plan selected="yes">
			<activity type="dummy" link="304345790017f" end_time="15:38:31" >
			</activity>
			<leg mode="drt">
			</leg>
			<activity type="dummy" link="1214991220020f" >
			</activity>
		</plan>

	</person>

<!-- ====================================================================== -->

	<person id="drt_person_128">
		<plan selected="yes">
			<activity type="dummy" link="1214991220007f" end_time="13:05:15" >
			</activity>
			<leg mode="drt">
			</leg>
			<activity type="dummy" link="104200730008f" >
			</activity>
		</plan>

	</person>

<!-- ====================================================================== -->

	<person id="drt_person_129">
		<plan selected="yes">
			<activity type="dummy" link="104206380005f" end_time="16:34:39" >
			</activity>
			<leg mode="drt">
			</leg>
			<activity type="dummy" link="1214991220007f" >
			</activity>
		</plan>

	</person>

<!-- ====================================================================== -->

	<person id="drt_person_13">
		<plan selected="yes">
			<activity type="dummy" link="107641300001f" end_time="16:05:02" >
			</activity>
			<leg mode="drt">
			</leg>
			<activity type="dummy" link="3744216040013f" >
			</activity>
		</plan>

	</person>

<!-- ====================================================================== -->

	<person id="drt_person_130">
		<plan selected="yes">
			<activity type="dummy" link="2141370990011f" end_time="08:55:09" >
			</activity>
			<leg mode="drt">
			</leg>
			<activity type="dummy" link="8291250390000f" >
			</activity>
		</plan>

	</person>

<!-- ====================================================================== -->

	<person id="drt_person_131">
		<plan selected="yes">
			<activity type="dummy" link="8291250390000f" end_time="06:56:24" >
			</activity>
			<leg mode="drt">
			</leg>
			<activity type="dummy" link="7259932640008f" >
			</activity>
		</plan>

	</person>

<!-- ====================================================================== -->

	<person id="drt_person_132">
		<plan selected="yes">
			<activity type="dummy" link="301006830004f" end_time="17:12:51" >
			</activity>
			<leg mode="drt">
			</leg>
			<activity type="dummy" link="273342960014f" >
			</activity>
		</plan>

	</person>

<!-- ====================================================================== -->

	<person id="drt_person_133">
		<plan selected="yes">
			<activity type="dummy" link="289279440006f" end_time="14:04:17" >
			</activity>
			<leg mode="drt">
			</leg>
			<activity type="dummy" link="283630180000f" >
			</activity>
		</plan>

	</person>

<!-- ====================================================================== -->

	<person id="drt_person_134">
		<plan selected="yes">
			<activity type="dummy" link="318768750005f" end_time="13:20:44" >
			</activity>
			<leg mode="drt">
			</leg>
			<activity type="dummy" link="325001510007f" >
			</activity>
		</plan>

	</person>

<!-- ====================================================================== -->

	<person id="drt_person_135">
		<plan selected="yes">
			<activity type="dummy" link="253175140052f" end_time="15:13:01" >
			</activity>
			<leg mode="drt">
			</leg>
			<activity type="dummy" link="676543100003f" >
			</activity>
		</plan>

	</person>

<!-- ====================================================================== -->

	<person id="drt_person_136">
		<plan selected="yes">
			<activity type="dummy" link="1292595880011f" end_time="14:21:45" >
			</activity>
			<leg mode="drt">
			</leg>
			<activity type="dummy" link="2617010940044f" >
			</activity>
		</plan>

	</person>

<!-- ====================================================================== -->

	<person id="drt_person_137">
		<plan selected="yes">
			<activity type="dummy" link="316877630021f" end_time="17:40:19" >
			</activity>
			<leg mode="drt">
			</leg>
			<activity type="dummy" link="2411253360000f" >
			</activity>
		</plan>

	</person>

<!-- ====================================================================== -->

	<person id="drt_person_138">
		<plan selected="yes">
			<activity type="dummy" link="316876500002f" end_time="13:36:46" >
			</activity>
			<leg mode="drt">
			</leg>
			<activity type="dummy" link="1292595810025f" >
			</activity>
		</plan>

	</person>

<!-- ====================================================================== -->

	<person id="drt_person_139">
		<plan selected="yes">
			<activity type="dummy" link="1292595820000f" end_time="14:20:16" >
			</activity>
			<leg mode="drt">
			</leg>
			<activity type="dummy" link="260956370000f" >
			</activity>
		</plan>

	</person>

<!-- ====================================================================== -->

	<person id="drt_person_14">
		<plan selected="yes">
			<activity type="dummy" link="5150118100006f" end_time="08:54:16" >
			</activity>
			<leg mode="drt">
			</leg>
			<activity type="dummy" link="316975280005f" >
			</activity>
		</plan>

	</person>

<!-- ====================================================================== -->

	<person id="drt_person_140">
		<plan selected="yes">
			<activity type="dummy" link="260956370000f" end_time="17:38:08" >
			</activity>
			<leg mode="drt">
			</leg>
			<activity type="dummy" link="1292595820000f" >
			</activity>
		</plan>

	</person>

<!-- ====================================================================== -->

	<person id="drt_person_141">
		<plan selected="yes">
			<activity type="dummy" link="5910872760014f" end_time="14:58:13" >
			</activity>
			<leg mode="drt">
			</leg>
			<activity type="dummy" link="7947152400003f" >
			</activity>
		</plan>

	</person>

<!-- ====================================================================== -->

	<person id="drt_person_142">
		<plan selected="yes">
			<activity type="dummy" link="2411253360000f" end_time="10:26:55" >
			</activity>
			<leg mode="drt">
			</leg>
			<activity type="dummy" link="399800210002f" >
			</activity>
		</plan>

	</person>

<!-- ====================================================================== -->

	<person id="drt_person_143">
		<plan selected="yes">
			<activity type="dummy" link="316982610007f" end_time="19:15:15" >
			</activity>
			<leg mode="drt">
			</leg>
			<activity type="dummy" link="379533710000f" >
			</activity>
		</plan>

	</person>

<!-- ====================================================================== -->

	<person id="drt_person_144">
		<plan selected="yes">
			<activity type="dummy" link="1214991260004f" end_time="19:06:26" >
			</activity>
			<leg mode="drt">
			</leg>
			<activity type="dummy" link="8201425800005f" >
			</activity>
		</plan>

	</person>

<!-- ====================================================================== -->

	<person id="drt_person_145">
		<plan selected="yes">
			<activity type="dummy" link="97796830006f" end_time="15:08:16" >
			</activity>
			<leg mode="drt">
			</leg>
			<activity type="dummy" link="1594898520003f" >
			</activity>
		</plan>

	</person>

<!-- ====================================================================== -->

	<person id="drt_person_146">
		<plan selected="yes">
			<activity type="dummy" link="273342960008f" end_time="13:11:32" >
			</activity>
			<leg mode="drt">
			</leg>
			<activity type="dummy" link="300210850016f" >
			</activity>
		</plan>

	</person>

<!-- ====================================================================== -->

	<person id="drt_person_147">
		<plan selected="yes">
			<activity type="dummy" link="324958760004f" end_time="13:04:00" >
			</activity>
			<leg mode="drt">
			</leg>
			<activity type="dummy" link="2617010940044f" >
			</activity>
		</plan>

	</person>

<!-- ====================================================================== -->

	<person id="drt_person_148">
		<plan selected="yes">
			<activity type="dummy" link="2617010940044f" end_time="14:58:46" >
			</activity>
			<leg mode="drt">
			</leg>
			<activity type="dummy" link="316970730014f" >
			</activity>
		</plan>

	</person>

<!-- ====================================================================== -->

	<person id="drt_person_149">
		<plan selected="yes">
			<activity type="dummy" link="316879550001f" end_time="08:58:47" >
			</activity>
			<leg mode="drt">
			</leg>
			<activity type="dummy" link="316982910002f" >
			</activity>
		</plan>

	</person>

<!-- ====================================================================== -->

	<person id="drt_person_15">
		<plan selected="yes">
			<activity type="dummy" link="316975280005f" end_time="19:39:04" >
			</activity>
			<leg mode="drt">
			</leg>
			<activity type="dummy" link="5150118100006f" >
			</activity>
		</plan>

	</person>

<!-- ====================================================================== -->

	<person id="drt_person_150">
		<plan selected="yes">
			<activity type="dummy" link="317246450027f" end_time="13:07:37" >
			</activity>
			<leg mode="drt">
			</leg>
			<activity type="dummy" link="6315270950001f" >
			</activity>
		</plan>

	</person>

<!-- ====================================================================== -->

	<person id="drt_person_151">
		<plan selected="yes">
			<activity type="dummy" link="324958740016f" end_time="09:05:40" >
			</activity>
			<leg mode="drt">
			</leg>
			<activity type="dummy" link="2750144870002f" >
			</activity>
		</plan>

	</person>

<!-- ====================================================================== -->

	<person id="drt_person_152">
		<plan selected="yes">
			<activity type="dummy" link="673435870000f" end_time="13:19:37" >
			</activity>
			<leg mode="drt">
			</leg>
			<activity type="dummy" link="267521990003f" >
			</activity>
		</plan>

	</person>

<!-- ====================================================================== -->

	<person id="drt_person_153">
		<plan selected="yes">
			<activity type="dummy" link="1598231590001f" end_time="13:02:33" >
			</activity>
			<leg mode="drt">
			</leg>
			<activity type="dummy" link="316936540006f" >
			</activity>
		</plan>

	</person>

<!-- ====================================================================== -->

	<person id="drt_person_154">
		<plan selected="yes">
			<activity type="dummy" link="316982610007f" end_time="19:12:41" >
			</activity>
			<leg mode="drt">
			</leg>
			<activity type="dummy" link="931201460023f" >
			</activity>
		</plan>

	</person>

<!-- ====================================================================== -->

	<person id="drt_person_155">
		<plan selected="yes">
			<activity type="dummy" link="265836630003f" end_time="20:47:32" >
			</activity>
			<leg mode="drt">
			</leg>
			<activity type="dummy" link="316982800005f" >
			</activity>
		</plan>

	</person>

<!-- ====================================================================== -->

	<person id="drt_person_156">
		<plan selected="yes">
			<activity type="dummy" link="316983260021f" end_time="09:12:00" >
			</activity>
			<leg mode="drt">
			</leg>
			<activity type="dummy" link="289830510003f" >
			</activity>
		</plan>

	</person>

<!-- ====================================================================== -->

	<person id="drt_person_157">
		<plan selected="yes">
			<activity type="dummy" link="289830510003f" end_time="15:08:25" >
			</activity>
			<leg mode="drt">
			</leg>
			<activity type="dummy" link="316983260021f" >
			</activity>
		</plan>

	</person>

<!-- ====================================================================== -->

	<person id="drt_person_158">
		<plan selected="yes">
			<activity type="dummy" link="673435870000f" end_time="09:17:38" >
			</activity>
			<leg mode="drt">
			</leg>
			<activity type="dummy" link="8571678520017f" >
			</activity>
		</plan>

	</person>

<!-- ====================================================================== -->

	<person id="drt_person_159">
		<plan selected="yes">
			<activity type="dummy" link="272978870020f" end_time="09:11:10" >
			</activity>
			<leg mode="drt">
			</leg>
			<activity type="dummy" link="510722970018f" >
			</activity>
		</plan>

	</person>

<!-- ====================================================================== -->

	<person id="drt_person_16">
		<plan selected="yes">
			<activity type="dummy" link="2073183250003f" end_time="07:08:32" >
			</activity>
			<leg mode="drt">
			</leg>
			<activity type="dummy" link="283405080006f" >
			</activity>
		</plan>

	</person>

<!-- ====================================================================== -->

	<person id="drt_person_160">
		<plan selected="yes">
			<activity type="dummy" link="510722970018f" end_time="19:14:18" >
			</activity>
			<leg mode="drt">
			</leg>
			<activity type="dummy" link="3445248950004f" >
			</activity>
		</plan>

	</person>

<!-- ====================================================================== -->

	<person id="drt_person_161">
		<plan selected="yes">
			<activity type="dummy" link="272869220006f" end_time="11:10:32" >
			</activity>
			<leg mode="drt">
			</leg>
			<activity type="dummy" link="316938650003f" >
			</activity>
		</plan>

	</person>

<!-- ====================================================================== -->

	<person id="drt_person_162">
		<plan selected="yes">
			<activity type="dummy" link="253172990022f" end_time="15:34:43" >
			</activity>
			<leg mode="drt">
			</leg>
			<activity type="dummy" link="316975280005f" >
			</activity>
		</plan>

	</person>

<!-- ====================================================================== -->

	<person id="drt_person_163">
		<plan selected="yes">
			<activity type="dummy" link="316975280005f" end_time="16:23:25" >
			</activity>
			<leg mode="drt">
			</leg>
			<activity type="dummy" link="268236970001f" >
			</activity>
		</plan>

	</person>

<!-- ====================================================================== -->

	<person id="drt_person_164">
		<plan selected="yes">
			<activity type="dummy" link="1395732140003f" end_time="18:18:42" >
			</activity>
			<leg mode="drt">
			</leg>
			<activity type="dummy" link="300208470001f" >
			</activity>
		</plan>

	</person>

<!-- ====================================================================== -->

	<person id="drt_person_165">
		<plan selected="yes">
			<activity type="dummy" link="404595280001f" end_time="10:12:51" >
			</activity>
			<leg mode="drt">
			</leg>
			<activity type="dummy" link="2750144950003f" >
			</activity>
		</plan>

	</person>

<!-- ====================================================================== -->

	<person id="drt_person_166">
		<plan selected="yes">
			<activity type="dummy" link="2750144950003f" end_time="14:30:00" >
			</activity>
			<leg mode="drt">
			</leg>
			<activity type="dummy" link="306816530003f" >
			</activity>
		</plan>

	</person>

<!-- ====================================================================== -->

	<person id="drt_person_167">
		<plan selected="yes">
			<activity type="dummy" link="306816530003f" end_time="15:36:01" >
			</activity>
			<leg mode="drt">
			</leg>
			<activity type="dummy" link="867479390009f" >
			</activity>
		</plan>

	</person>

<!-- ====================================================================== -->

	<person id="drt_person_168">
		<plan selected="yes">
			<activity type="dummy" link="399723320000f" end_time="18:18:49" >
			</activity>
			<leg mode="drt">
			</leg>
			<activity type="dummy" link="404373820002f" >
			</activity>
		</plan>

	</person>

<!-- ====================================================================== -->

	<person id="drt_person_169">
		<plan selected="yes">
			<activity type="dummy" link="399723330002f" end_time="10:10:05" >
			</activity>
			<leg mode="drt">
			</leg>
			<activity type="dummy" link="2617006220006f" >
			</activity>
		</plan>

	</person>

<!-- ====================================================================== -->

	<person id="drt_person_17">
		<plan selected="yes">
			<activity type="dummy" link="301006830004f" end_time="15:07:24" >
			</activity>
			<leg mode="drt">
			</leg>
			<activity type="dummy" link="97819070002f" >
			</activity>
		</plan>

	</person>

<!-- ====================================================================== -->

	<person id="drt_person_170">
		<plan selected="yes">
			<activity type="dummy" link="267619120003f" end_time="09:01:53" >
			</activity>
			<leg mode="drt">
			</leg>
			<activity type="dummy" link="318768750005f" >
			</activity>
		</plan>

	</person>

<!-- ====================================================================== -->

	<person id="drt_person_171">
		<plan selected="yes">
			<activity type="dummy" link="318768750005f" end_time="17:20:07" >
			</activity>
			<leg mode="drt">
			</leg>
			<activity type="dummy" link="267619120003f" >
			</activity>
		</plan>

	</person>

<!-- ====================================================================== -->

	<person id="drt_person_172">
		<plan selected="yes">
			<activity type="dummy" link="316875370003f" end_time="13:16:02" >
			</activity>
			<leg mode="drt">
			</leg>
			<activity type="dummy" link="938728570007f" >
			</activity>
		</plan>

	</person>

<!-- ====================================================================== -->

	<person id="drt_person_173">
		<plan selected="yes">
			<activity type="dummy" link="938728570007f" end_time="17:12:20" >
			</activity>
			<leg mode="drt">
			</leg>
			<activity type="dummy" link="7944474730002f" >
			</activity>
		</plan>

	</person>

<!-- ====================================================================== -->

	<person id="drt_person_174">
		<plan selected="yes">
			<activity type="dummy" link="371223040002f" end_time="16:12:34" >
			</activity>
			<leg mode="drt">
			</leg>
			<activity type="dummy" link="924445170007f" >
			</activity>
		</plan>

	</person>

<!-- ====================================================================== -->

	<person id="drt_person_175">
		<plan selected="yes">
			<activity type="dummy" link="924445170007f" end_time="21:05:27" >
			</activity>
			<leg mode="drt">
			</leg>
			<activity type="dummy" link="265836630003f" >
			</activity>
		</plan>

	</person>

<!-- ====================================================================== -->

	<person id="drt_person_176">
		<plan selected="yes">
			<activity type="dummy" link="4913638600004f" end_time="13:27:46" >
			</activity>
			<leg mode="drt">
			</leg>
			<activity type="dummy" link="275076600010f" >
			</activity>
		</plan>

	</person>

<!-- ====================================================================== -->

	<person id="drt_person_177">
		<plan selected="yes">
			<activity type="dummy" link="3469883860018f" end_time="15:11:38" >
			</activity>
			<leg mode="drt">
			</leg>
			<activity type="dummy" link="399800220014f" >
			</activity>
		</plan>

	</person>

<!-- ====================================================================== -->

	<person id="drt_person_178">
		<plan selected="yes">
			<activity type="dummy" link="267619150005f" end_time="13:05:29" >
			</activity>
			<leg mode="drt">