<?xml version="1.0" encoding="utf-8"?>
<!DOCTYPE population SYSTEM "http://www.matsim.org/files/dtd/population_v6.dtd">

<population>



<!-- ====================================================================== -->

	<person id="drt_person_0">
		<plan selected="yes">
			<activity type="dummy" x="457685.4705887371" y="5740004.041388335" end_time="07:48:38" >
			</activity>
			<leg mode="drt">
			</leg>
			<activity type="dummy" x="456223.8089950741" y="5732282.2554312255" >
			</activity>
		</plan>

	</person>

<!-- ====================================================================== -->

	<person id="drt_person_1">
		<plan selected="yes">
			<activity type="dummy" x="456223.8089950741" y="5732282.2554312255" end_time="15:31:17" >
			</activity>
			<leg mode="drt">
			</leg>
			<activity type="dummy" x="457685.4705887371" y="5740004.041388335" >
			</activity>
		</plan>

	</person>

<!-- ====================================================================== -->

	<person id="drt_person_10">
		<plan selected="yes">
			<activity type="dummy" x="451542.07019889925" y="5734141.862175951" end_time="07:40:24" >
			</activity>
			<leg mode="drt">
			</leg>
			<activity type="dummy" x="453568.3498347992" y="5732150.94799711" >
			</activity>
		</plan>

	</person>

<!-- ====================================================================== -->

	<person id="drt_person_100">
		<plan selected="yes">
			<activity type="dummy" x="453681.9094125228" y="5734148.765209865" end_time="15:40:11" >
			</activity>
			<leg mode="drt">
			</leg>
			<activity type="dummy" x="453875.2729709694" y="5732305.067969019" >
			</activity>
		</plan>

	</person>

<!-- ====================================================================== -->

	<person id="drt_person_1000">
		<plan selected="yes">
			<activity type="dummy" x="453458.1792530336" y="5734940.651397653" end_time="08:13:33" >
			</activity>
			<leg mode="drt">
			</leg>
			<activity type="dummy" x="454419.1066290579" y="5732656.432933363" >
			</activity>
		</plan>

	</person>

<!-- ====================================================================== -->

	<person id="drt_person_1001">
		<plan selected="yes">
			<activity type="dummy" x="454419.1066290579" y="5732656.432933363" end_time="16:32:49" >
			</activity>
			<leg mode="drt">
			</leg>
			<activity type="dummy" x="453458.1792530336" y="5734940.651397653" >
			</activity>
		</plan>

	</person>

<!-- ====================================================================== -->

	<person id="drt_person_1002">
		<plan selected="yes">
			<activity type="dummy" x="456613.2909062633" y="5731758.101090523" end_time="06:46:47" >
			</activity>
			<leg mode="drt">
			</leg>
			<activity type="dummy" x="457844.4516444179" y="5740025.414686695" >
			</activity>
		</plan>

	</person>

<!-- ====================================================================== -->

	<person id="drt_person_1003">
		<plan selected="yes">
			<activity type="dummy" x="457844.4516444179" y="5740025.414686695" end_time="15:06:38" >
			</activity>
			<leg mode="drt">
			</leg>
			<activity type="dummy" x="456613.2909062633" y="5731758.101090523" >
			</activity>
		</plan>

	</person>

<!-- ====================================================================== -->

	<person id="drt_person_1004">
		<plan selected="yes">
			<activity type="dummy" x="454278.9876957165" y="5737782.577865755" end_time="05:49:00" >
			</activity>
			<leg mode="drt">
			</leg>
			<activity type="dummy" x="455261.4175887185" y="5739555.942917105" >
			</activity>
		</plan>

	</person>

<!-- ====================================================================== -->

	<person id="drt_person_1005">
		<plan selected="yes">
			<activity type="dummy" x="455261.4175887185" y="5739555.942917105" end_time="15:22:06" >
			</activity>
			<leg mode="drt">
			</leg>
			<activity type="dummy" x="454278.9876957165" y="5737782.577865755" >
			</activity>
		</plan>

	</person>

<!-- ====================================================================== -->

	<person id="drt_person_1006">
		<plan selected="yes">
			<activity type="dummy" x="457052.4390382907" y="5739933.094350661" end_time="07:05:27" >
			</activity>
			<leg mode="drt">
			</leg>
			<activity type="dummy" x="454230.9782768515" y="5741762.830455182" >
			</activity>
		</plan>

	</person>

<!-- ====================================================================== -->

	<person id="drt_person_1007">
		<plan selected="yes">
			<activity type="dummy" x="454230.9782768515" y="5741762.830455182" end_time="16:20:32" >
			</activity>
			<leg mode="drt">
			</leg>
			<activity type="dummy" x="457052.4390382907" y="5739933.094350661" >
			</activity>
		</plan>

	</person>

<!-- ====================================================================== -->

	<person id="drt_person_1008">
		<plan selected="yes">
			<activity type="dummy" x="453663.7399187983" y="5731968.285749706" end_time="07:15:01" >
			</activity>
			<leg mode="drt">
			</leg>
			<activity type="dummy" x="452435.979757172" y="5734383.640781901" >
			</activity>
		</plan>

	</person>

<!-- ====================================================================== -->

	<person id="drt_person_1009">
		<plan selected="yes">
			<activity type="dummy" x="452435.979757172" y="5734383.640781901" end_time="15:42:54" >
			</activity>
			<leg mode="drt">
			</leg>
			<activity type="dummy" x="453663.7399187983" y="5731968.285749706" >
			</activity>
		</plan>

	</person>

<!-- ====================================================================== -->

	<person id="drt_person_101">
		<plan selected="yes">
			<activity type="dummy" x="453875.2729709694" y="5732305.067969019" end_time="15:27:57" >
			</activity>
			<leg mode="drt">
			</leg>
			<activity type="dummy" x="453853.1204235007" y="5732587.264232468" >
			</activity>
		</plan>

	</person>

<!-- ====================================================================== -->

	<person id="drt_person_1010">
		<plan selected="yes">
			<activity type="dummy" x="457101.7091621813" y="5735914.161654455" end_time="07:49:12" >
			</activity>
			<leg mode="drt">
			</leg>
			<activity type="dummy" x="456223.8089950741" y="5732282.2554312255" >
			</activity>
		</plan>

	</person>

<!-- ====================================================================== -->

	<person id="drt_person_1011">
		<plan selected="yes">
			<activity type="dummy" x="456223.8089950741" y="5732282.2554312255" end_time="16:39:56" >
			</activity>
			<leg mode="drt">
			</leg>
			<activity type="dummy" x="457101.7091621813" y="5735914.161654455" >
			</activity>
		</plan>

	</person>

<!-- ====================================================================== -->

	<person id="drt_person_1012">
		<plan selected="yes">
			<activity type="dummy" x="454054.13834716077" y="5729805.5866246335" end_time="08:44:24" >
			</activity>
			<leg mode="drt">
			</leg>
			<activity type="dummy" x="455574.0564578941" y="5730661.351087037" >
			</activity>
		</plan>

	</person>

<!-- ====================================================================== -->

	<person id="drt_person_1013">
		<plan selected="yes">
			<activity type="dummy" x="455574.0564578941" y="5730661.351087037" end_time="16:28:02" >
			</activity>
			<leg mode="drt">
			</leg>
			<activity type="dummy" x="454054.13834716077" y="5729805.5866246335" >
			</activity>
		</plan>

	</person>

<!-- ====================================================================== -->

	<person id="drt_person_1014">
		<plan selected="yes">
			<activity type="dummy" x="458508.1579851733" y="5734964.725606532" end_time="08:19:26" >
			</activity>
			<leg mode="drt">
			</leg>
			<activity type="dummy" x="457455.57356559293" y="5739133.667181035" >
			</activity>
		</plan>

	</person>

<!-- ====================================================================== -->

	<person id="drt_person_1015">
		<plan selected="yes">
			<activity type="dummy" x="457455.57356559293" y="5739133.667181035" end_time="16:37:01" >
			</activity>
			<leg mode="drt">
			</leg>
			<activity type="dummy" x="458508.1579851733" y="5734964.725606532" >
			</activity>
		</plan>

	</person>

<!-- ====================================================================== -->

	<person id="drt_person_1016">
		<plan selected="yes">
			<activity type="dummy" x="456207.2676296206" y="5728282.500764844" end_time="07:52:40" >
			</activity>
			<leg mode="drt">
			</leg>
			<activity type="dummy" x="453876.3730837853" y="5736824.171045624" >
			</activity>
		</plan>

	</person>

<!-- ====================================================================== -->

	<person id="drt_person_1017">
		<plan selected="yes">
			<activity type="dummy" x="453876.3730837853" y="5736824.171045624" end_time="15:56:36" >
			</activity>
			<leg mode="drt">
			</leg>
			<activity type="dummy" x="456207.2676296206" y="5728282.500764844" >
			</activity>
		</plan>

	</person>

<!-- ====================================================================== -->

	<person id="drt_person_1018">
		<plan selected="yes">
			<activity type="dummy" x="456867.0355955018" y="5736898.944059912" end_time="06:44:59" >
			</activity>
			<leg mode="drt">
			</leg>
			<activity type="dummy" x="457363.54566633113" y="5739321.576164464" >
			</activity>
		</plan>

	</person>

<!-- ====================================================================== -->

	<person id="drt_person_1019">
		<plan selected="yes">
			<activity type="dummy" x="457363.54566633113" y="5739321.576164464" end_time="15:10:22" >
			</activity>
			<leg mode="drt">
			</leg>
			<activity type="dummy" x="456867.0355955018" y="5736898.944059912" >
			</activity>
		</plan>

	</person>

<!-- ====================================================================== -->

	<person id="drt_person_102">
		<plan selected="yes">
			<activity type="dummy" x="453769.5414704818" y="5733256.405528071" end_time="07:33:13" >
			</activity>
			<leg mode="drt">
			</leg>
			<activity type="dummy" x="453875.2729709694" y="5732305.067969019" >
			</activity>
		</plan>

	</person>

<!-- ====================================================================== -->

	<person id="drt_person_1020">
		<plan selected="yes">
			<activity type="dummy" x="452656.8358365163" y="5731138.641016332" end_time="07:08:36" >
			</activity>
			<leg mode="drt">
			</leg>
			<activity type="dummy" x="454230.9782768515" y="5741762.830455182" >
			</activity>
		</plan>

	</person>

<!-- ====================================================================== -->

	<person id="drt_person_1021">
		<plan selected="yes">
			<activity type="dummy" x="454230.9782768515" y="5741762.830455182" end_time="15:02:15" >
			</activity>
			<leg mode="drt">
			</leg>
			<activity type="dummy" x="452656.8358365163" y="5731138.641016332" >
			</activity>
		</plan>

	</person>

<!-- ====================================================================== -->

	<person id="drt_person_1022">
		<plan selected="yes">
			<activity type="dummy" x="452656.8358365163" y="5731138.641016332" end_time="16:33:03" >
			</activity>
			<leg mode="drt">
			</leg>
			<activity type="dummy" x="453094.89469849714" y="5729894.575056443" >
			</activity>
		</plan>

	</person>

<!-- ====================================================================== -->

	<person id="drt_person_1023">
		<plan selected="yes">
			<activity type="dummy" x="453094.89469849714" y="5729894.575056443" end_time="18:48:12" >
			</activity>
			<leg mode="drt">
			</leg>
			<activity type="dummy" x="452656.8358365163" y="5731138.641016332" >
			</activity>
		</plan>

	</person>

<!-- ====================================================================== -->

	<person id="drt_person_1024">
		<plan selected="yes">
			<activity type="dummy" x="454814.0404007842" y="5743560.549823888" end_time="07:48:46" >
			</activity>
			<leg mode="drt">
			</leg>
			<activity type="dummy" x="454705.37252495" y="5734529.330175113" >
			</activity>
		</plan>

	</person>

<!-- ====================================================================== -->

	<person id="drt_person_1025">
		<plan selected="yes">
			<activity type="dummy" x="454705.37252495" y="5734529.330175113" end_time="16:34:30" >
			</activity>
			<leg mode="drt">
			</leg>
			<activity type="dummy" x="454814.0404007842" y="5743560.549823888" >
			</activity>
		</plan>

	</person>

<!-- ====================================================================== -->

	<person id="drt_person_1026">
		<plan selected="yes">
			<activity type="dummy" x="454581.14892443415" y="5730156.969185825" end_time="06:34:05" >
			</activity>
			<leg mode="drt">
			</leg>
			<activity type="dummy" x="453663.7399187983" y="5731968.285749706" >
			</activity>
		</plan>

	</person>

<!-- ====================================================================== -->

	<person id="drt_person_1027">
		<plan selected="yes">
			<activity type="dummy" x="453663.7399187983" y="5731968.285749706" end_time="14:37:03" >
			</activity>
			<leg mode="drt">
			</leg>
			<activity type="dummy" x="454581.14892443415" y="5730156.969185825" >
			</activity>
		</plan>

	</person>

<!-- ====================================================================== -->

	<person id="drt_person_1028">
		<plan selected="yes">
			<activity type="dummy" x="457655.88042230566" y="5740689.882324283" end_time="07:52:06" >
			</activity>
			<leg mode="drt">
			</leg>
			<activity type="dummy" x="457861.0015839417" y="5734978.972353696" >
			</activity>
		</plan>

	</person>

<!-- ====================================================================== -->

	<person id="drt_person_1029">
		<plan selected="yes">
			<activity type="dummy" x="457861.0015839417" y="5734978.972353696" end_time="15:57:32" >
			</activity>
			<leg mode="drt">
			</leg>
			<activity type="dummy" x="457655.88042230566" y="5740689.882324283" >
			</activity>
		</plan>

	</person>

<!-- ====================================================================== -->

	<person id="drt_person_103">
		<plan selected="yes">
			<activity type="dummy" x="453875.2729709694" y="5732305.067969019" end_time="08:09:01" >
			</activity>
			<leg mode="drt">
			</leg>
			<activity type="dummy" x="453747.23216289293" y="5733528.116318689" >
			</activity>
		</plan>

	</person>

<!-- ====================================================================== -->

	<person id="drt_person_1030">
		<plan selected="yes">
			<activity type="dummy" x="456805.6909400894" y="5732583.723845854" end_time="07:11:30" >
			</activity>
			<leg mode="drt">
			</leg>
			<activity type="dummy" x="457383.4608083559" y="5739930.411030196" >
			</activity>
		</plan>

	</person>

<!-- ====================================================================== -->

	<person id="drt_person_1031">
		<plan selected="yes">
			<activity type="dummy" x="457383.4608083559" y="5739930.411030196" end_time="14:35:34" >
			</activity>
			<leg mode="drt">
			</leg>
			<activity type="dummy" x="456805.6909400894" y="5732583.723845854" >
			</activity>
		</plan>

	</person>

<!-- ====================================================================== -->

	<person id="drt_person_1032">
		<plan selected="yes">
			<activity type="dummy" x="456805.6909400894" y="5732583.723845854" end_time="16:37:19" >
			</activity>
			<leg mode="drt">
			</leg>
			<activity type="dummy" x="455006.52115909086" y="5734909.411959048" >
			</activity>
		</plan>

	</person>

<!-- ====================================================================== -->

	<person id="drt_person_1033">
		<plan selected="yes">
			<activity type="dummy" x="455006.52115909086" y="5734909.411959048" end_time="17:48:34" >
			</activity>
			<leg mode="drt">
			</leg>
			<activity type="dummy" x="456805.6909400894" y="5732583.723845854" >
			</activity>
		</plan>

	</person>

<!-- ====================================================================== -->

	<person id="drt_person_1034">
		<plan selected="yes">
			<activity type="dummy" x="454519.58544021053" y="5734308.292099375" end_time="07:11:36" >
			</activity>
			<leg mode="drt">
			</leg>
			<activity type="dummy" x="457227.70794653177" y="5739218.042363327" >
			</activity>
		</plan>

	</person>

<!-- ====================================================================== -->

	<person id="drt_person_1035">
		<plan selected="yes">
			<activity type="dummy" x="457227.70794653177" y="5739218.042363327" end_time="15:12:10" >
			</activity>
			<leg mode="drt">
			</leg>
			<activity type="dummy" x="454519.58544021053" y="5734308.292099375" >
			</activity>
		</plan>

	</person>

<!-- ====================================================================== -->

	<person id="drt_person_1036">
		<plan selected="yes">
			<activity type="dummy" x="455196.9905211953" y="5734304.017808044" end_time="07:20:26" >
			</activity>
			<leg mode="drt">
			</leg>
			<activity type="dummy" x="453407.7993353339" y="5734628.256854183" >
			</activity>
		</plan>

	</person>

<!-- ====================================================================== -->

	<person id="drt_person_1037">
		<plan selected="yes">
			<activity type="dummy" x="453407.7993353339" y="5734628.256854183" end_time="14:56:28" >
			</activity>
			<leg mode="drt">
			</leg>
			<activity type="dummy" x="455196.9905211953" y="5734304.017808044" >
			</activity>
		</plan>

	</person>

<!-- ====================================================================== -->

	<person id="drt_person_1038">
		<plan selected="yes">
			<activity type="dummy" x="455196.9905211953" y="5734304.017808044" end_time="16:58:02" >
			</activity>
			<leg mode="drt">
			</leg>
			<activity type="dummy" x="455006.52115909086" y="5734909.411959048" >
			</activity>
		</plan>

	</person>

<!-- ====================================================================== -->

	<person id="drt_person_1039">
		<plan selected="yes">
			<activity type="dummy" x="455006.52115909086" y="5734909.411959048" end_time="18:17:13" >
			</activity>
			<leg mode="drt">
			</leg>
			<activity type="dummy" x="455196.9905211953" y="5734304.017808044" >
			</activity>
		</plan>

	</person>

<!-- ====================================================================== -->

	<person id="drt_person_104">
		<plan selected="yes">
			<activity type="dummy" x="453747.23216289293" y="5733528.116318689" end_time="15:35:15" >
			</activity>
			<leg mode="drt">
			</leg>
			<activity type="dummy" x="453875.2729709694" y="5732305.067969019" >
			</activity>
		</plan>

	</person>

<!-- ====================================================================== -->

	<person id="drt_person_1040">
		<plan selected="yes">
			<activity type="dummy" x="456632.02794263867" y="5728014.363910365" end_time="07:05:47" >
			</activity>
			<leg mode="drt">
			</leg>
			<activity type="dummy" x="453868.6396599353" y="5730500.609266827" >
			</activity>
		</plan>

	</person>

<!-- ====================================================================== -->

	<person id="drt_person_1041">
		<plan selected="yes">
			<activity type="dummy" x="453868.6396599353" y="5730500.609266827" end_time="08:22:16" >
			</activity>
			<leg mode="drt">
			</leg>
			<activity type="dummy" x="455927.8680092795" y="5727875.649825024" >
			</activity>
		</plan>

	</person>

<!-- ====================================================================== -->

	<person id="drt_person_1042">
		<plan selected="yes">
			<activity type="dummy" x="455927.8680092795" y="5727875.649825024" end_time="16:28:29" >
			</activity>
			<leg mode="drt">
			</leg>
			<activity type="dummy" x="453868.6396599353" y="5730500.609266827" >
			</activity>
		</plan>

	</person>

<!-- ====================================================================== -->

	<person id="drt_person_1043">
		<plan selected="yes">
			<activity type="dummy" x="453868.6396599353" y="5730500.609266827" end_time="16:31:53" >
			</activity>
			<leg mode="drt">
			</leg>
			<activity type="dummy" x="456632.02794263867" y="5728014.363910365" >
			</activity>
		</plan>

	</person>

<!-- ====================================================================== -->

	<person id="drt_person_1044">
		<plan selected="yes">
			<activity type="dummy" x="456720.2240088103" y="5737015.305950587" end_time="06:25:53" >
			</activity>
			<leg mode="drt">
			</leg>
			<activity type="dummy" x="456225.5538494504" y="5732152.607486473" >
			</activity>
		</plan>

	</person>

<!-- ====================================================================== -->

	<person id="drt_person_1045">
		<plan selected="yes">
			<activity type="dummy" x="456225.5538494504" y="5732152.607486473" end_time="15:01:15" >
			</activity>
			<leg mode="drt">
			</leg>
			<activity type="dummy" x="456720.2240088103" y="5737015.305950587" >
			</activity>
		</plan>

	</person>

<!-- ====================================================================== -->

	<person id="drt_person_1046">
		<plan selected="yes">
			<activity type="dummy" x="455949.2024722884" y="5730295.519902916" end_time="06:51:40" >
			</activity>
			<leg mode="drt">
			</leg>
			<activity type="dummy" x="453868.6396599353" y="5730500.609266827" >
			</activity>
		</plan>

	</person>

<!-- ====================================================================== -->

	<person id="drt_person_1047">
		<plan selected="yes">
			<activity type="dummy" x="453868.6396599353" y="5730500.609266827" end_time="07:25:52" >
			</activity>
			<leg mode="drt">
			</leg>
			<activity type="dummy" x="455618.934215413" y="5738009.764818886" >
			</activity>
		</plan>

	</person>

<!-- ====================================================================== -->

	<person id="drt_person_1048">
		<plan selected="yes">
			<activity type="dummy" x="455618.934215413" y="5738009.764818886" end_time="15:31:30" >
			</activity>
			<leg mode="drt">
			</leg>
			<activity type="dummy" x="453868.6396599353" y="5730500.609266827" >
			</activity>
		</plan>

	</person>

<!-- ====================================================================== -->

	<person id="drt_person_1049">
		<plan selected="yes">
			<activity type="dummy" x="453868.6396599353" y="5730500.609266827" end_time="15:47:48" >
			</activity>
			<leg mode="drt">
			</leg>
			<activity type="dummy" x="455949.2024722884" y="5730295.519902916" >
			</activity>
		</plan>

	</person>

<!-- ====================================================================== -->

	<person id="drt_person_105">
		<plan selected="yes">
			<activity type="dummy" x="453875.2729709694" y="5732305.067969019" end_time="15:42:47" >
			</activity>
			<leg mode="drt">
			</leg>
			<activity type="dummy" x="453769.5414704818" y="5733256.405528071" >
			</activity>
		</plan>

	</person>

<!-- ====================================================================== -->

	<person id="drt_person_1050">
		<plan selected="yes">
			<activity type="dummy" x="452067.0739749736" y="5733040.634418764" end_time="06:39:46" >
			</activity>
			<leg mode="drt">
			</leg>
			<activity type="dummy" x="455045.78711553477" y="5736908.463052685" >
			</activity>
		</plan>

	</person>

<!-- ====================================================================== -->

	<person id="drt_person_1051">
		<plan selected="yes">
			<activity type="dummy" x="455045.78711553477" y="5736908.463052685" end_time="14:37:28" >
			</activity>
			<leg mode="drt">
			</leg>
			<activity type="dummy" x="452067.0739749736" y="5733040.634418764" >
			</activity>
		</plan>

	</person>

<!-- ====================================================================== -->

	<person id="drt_person_1052">
		<plan selected="yes">
			<activity type="dummy" x="454829.2777748866" y="5730453.4923769245" end_time="07:08:11" >
			</activity>
			<leg mode="drt">
			</leg>
			<activity type="dummy" x="456108.2136958583" y="5728466.447680784" >
			</activity>
		</plan>

	</person>

<!-- ====================================================================== -->

	<person id="drt_person_1053">
		<plan selected="yes">
			<activity type="dummy" x="456108.2136958583" y="5728466.447680784" end_time="14:47:50" >
			</activity>
			<leg mode="drt">
			</leg>
			<activity type="dummy" x="454829.2777748866" y="5730453.4923769245" >
			</activity>
		</plan>

	</person>

<!-- ====================================================================== -->

	<person id="drt_person_1054">
		<plan selected="yes">
			<activity type="dummy" x="454829.2777748866" y="5730453.4923769245" end_time="16:45:16" >
			</activity>
			<leg mode="drt">
			</leg>
			<activity type="dummy" x="453094.89469849714" y="5729894.575056443" >
			</activity>
		</plan>

	</person>

<!-- ====================================================================== -->

	<person id="drt_person_1055">
		<plan selected="yes">
			<activity type="dummy" x="453094.89469849714" y="5729894.575056443" end_time="18:17:57" >
			</activity>
			<leg mode="drt">
			</leg>
			<activity type="dummy" x="454829.2777748866" y="5730453.4923769245" >
			</activity>
		</plan>

	</person>

<!-- ====================================================================== -->

	<person id="drt_person_1056">
		<plan selected="yes">
			<activity type="dummy" x="452167.0267151601" y="5733258.577116618" end_time="07:56:13" >
			</activity>
			<leg mode="drt">
			</leg>
			<activity type="dummy" x="456312.1069221533" y="5732008.412140861" >
			</activity>
		</plan>

	</person>

<!-- ====================================================================== -->

	<person id="drt_person_1057">
		<plan selected="yes">
			<activity type="dummy" x="456312.1069221533" y="5732008.412140861" end_time="17:00:11" >
			</activity>
			<leg mode="drt">
			</leg>
			<activity type="dummy" x="452167.0267151601" y="5733258.577116618" >
			</activity>
		</plan>

	</person>

<!-- ====================================================================== -->

	<person id="drt_person_1058">
		<plan selected="yes">
			<activity type="dummy" x="452167.0267151601" y="5733258.577116618" end_time="18:19:27" >
			</activity>
			<leg mode="drt">
			</leg>
			<activity type="dummy" x="452524.2015285962" y="5732810.905557928" >
			</activity>
		</plan>

	</person>

<!-- ====================================================================== -->

	<person id="drt_person_1059">
		<plan selected="yes">
			<activity type="dummy" x="452524.2015285962" y="5732810.905557928" end_time="19:15:49" >
			</activity>
			<leg mode="drt">
			</leg>
			<activity type="dummy" x="452167.0267151601" y="5733258.577116618" >
			</activity>
		</plan>

	</person>

<!-- ====================================================================== -->

	<person id="drt_person_106">
		<plan selected="yes">
			<activity type="dummy" x="454101.72204021673" y="5733410.617210176" end_time="06:53:13" >
			</activity>
			<leg mode="drt">
			</leg>
			<activity type="dummy" x="453875.2729709694" y="5732305.067969019" >
			</activity>
		</plan>

	</person>

<!-- ====================================================================== -->

	<person id="drt_person_1060">
		<plan selected="yes">
			<activity type="dummy" x="456291.4003162279" y="5731526.293033428" end_time="06:21:35" >
			</activity>
			<leg mode="drt">
			</leg>
			<activity type="dummy" x="457695.70384554734" y="5730103.311217915" >
			</activity>
		</plan>

	</person>

<!-- ====================================================================== -->

	<person id="drt_person_1061">
		<plan selected="yes">
			<activity type="dummy" x="457695.70384554734" y="5730103.311217915" end_time="15:30:08" >
			</activity>
			<leg mode="drt">
			</leg>
			<activity type="dummy" x="456291.4003162279" y="5731526.293033428" >
			</activity>
		</plan>

	</person>

<!-- ====================================================================== -->

	<person id="drt_person_1062">
		<plan selected="yes">
			<activity type="dummy" x="456569.798222351" y="5736634.916430937" end_time="06:51:52" >
			</activity>
			<leg mode="drt">
			</leg>
			<activity type="dummy" x="454519.58544021053" y="5734308.292099375" >
			</activity>
		</plan>

	</person>

<!-- ====================================================================== -->

	<person id="drt_person_1063">
		<plan selected="yes">
			<activity type="dummy" x="454519.58544021053" y="5734308.292099375" end_time="15:04:29" >
			</activity>
			<leg mode="drt">
			</leg>
			<activity type="dummy" x="456569.798222351" y="5736634.916430937" >
			</activity>
		</plan>

	</person>

<!-- ====================================================================== -->

	<person id="drt_person_1064">
		<plan selected="yes">
			<activity type="dummy" x="456632.02794263867" y="5728014.363910365" end_time="06:51:57" >
			</activity>
			<leg mode="drt">
			</leg>
			<activity type="dummy" x="454357.1771485771" y="5732882.070468232" >
			</activity>
		</plan>

	</person>

<!-- ====================================================================== -->

	<person id="drt_person_1065">
		<plan selected="yes">
			<activity type="dummy" x="454357.1771485771" y="5732882.070468232" end_time="15:56:13" >
			</activity>
			<leg mode="drt">
			</leg>
			<activity type="dummy" x="456632.02794263867" y="5728014.363910365" >
			</activity>
		</plan>

	</person>

<!-- ====================================================================== -->

	<person id="drt_person_1066">
		<plan selected="yes">
			<activity type="dummy" x="457314.7698431158" y="5738792.298276495" end_time="07:24:04" >
			</activity>
			<leg mode="drt">
			</leg>
			<activity type="dummy" x="456646.1825567565" y="5734755.383523537" >
			</activity>
		</plan>

	</person>

<!-- ====================================================================== -->

	<person id="drt_person_1067">
		<plan selected="yes">
			<activity type="dummy" x="456646.1825567565" y="5734755.383523537" end_time="14:48:44" >
			</activity>
			<leg mode="drt">
			</leg>
			<activity type="dummy" x="457314.7698431158" y="5738792.298276495" >